<?xml version="1.0" encoding="UTF-8"?>

<!-- generated on 2025-10-13 16:08:04 by Eclipse SUMO netedit Version 1.24.0
-->

<routes xmlns:xsi="http://www.w3.org/2001/XMLSchema-instance" xsi:noNamespaceSchemaLocation="http://sumo.dlr.de/xsd/routes_file.xsd">
    <!-- VTypes -->
    <vType id="bus_bus" vClass="bus"/>
    <!-- Vehicles, persons and containers (sorted by depart) -->
    <flow id="bus_flow" type="bus_bus" begin="0.00" departLane="random" departPos="free" departSpeed="random" from="-15112706#11" to="15105156#1" end="3600.00" number="134"/>
</routes>
