<?xml version="1.0" encoding="UTF-8"?>

<!-- generated on 2025-10-13 16:08:04 by Eclipse SUMO netedit Version 1.24.0
-->

<routes xmlns:xsi="http://www.w3.org/2001/XMLSchema-instance" xsi:noNamespaceSchemaLocation="http://sumo.dlr.de/xsd/routes_file.xsd">
    <!-- VTypes -->
    <vType id="veh_passenger" vClass="passenger"/>
    <!-- Vehicles, persons and containers (sorted by depart) -->
    <trip id="veh0" type="veh_passenger" depart="0.00" departLane="best" from="-761098574#3" to="15105937#0"/>
    <trip id="veh1" type="veh_passenger" depart="0.60" departLane="best" departSpeed="max" from="488958073" to="-15116050#1"/>
    <trip id="veh2" type="veh_passenger" depart="1.19" departLane="best" from="-15120263#4" to="-1428235009#0"/>
    <trip id="veh3" type="veh_passenger" depart="1.79" departLane="best" from="-15111224#2" to="-1158488310#11"/>
    <trip id="veh4" type="veh_passenger" depart="2.38" departLane="best" from="-15114305#2" to="15104596#1"/>
    <trip id="veh5" type="veh_passenger" depart="2.98" departLane="best" from="888173950#2" to="15119977"/>
    <trip id="veh6" type="veh_passenger" depart="3.57" departLane="best" from="-716657423#7" to="-823248755#0"/>
    <trip id="veh7" type="veh_passenger" depart="4.17" departLane="best" from="15118637#3" to="-478967613"/>
    <trip id="veh8" type="veh_passenger" depart="4.76" departLane="best" from="-15105058#1" to="425114564#2"/>
    <trip id="veh9" type="veh_passenger" depart="5.36" departLane="best" from="-15104913#24" to="-15110470#2"/>
    <trip id="veh10" type="veh_passenger" depart="5.95" departLane="best" from="781993329#0" to="-15111780"/>
    <trip id="veh11" type="veh_passenger" depart="6.55" departLane="best" from="15113026#23" to="823248756#1"/>
    <trip id="veh12" type="veh_passenger" depart="7.15" departLane="best" from="-1428508043#8" to="-737405621#4"/>
    <trip id="veh13" type="veh_passenger" depart="7.74" departLane="best" from="1209243783#3" to="716657425#5"/>
    <trip id="veh14" type="veh_passenger" depart="8.34" departLane="best" from="-15116024#2" to="-15124543"/>
    <trip id="veh15" type="veh_passenger" depart="8.93" departLane="best" from="-15122335" to="-15103522#16"/>
    <trip id="veh16" type="veh_passenger" depart="9.53" departLane="best" from="15116029#1" to="361653552#0"/>
    <trip id="veh17" type="veh_passenger" depart="10.12" departLane="best" from="-888173930#1" to="-145135694#2"/>
    <trip id="veh18" type="veh_passenger" depart="10.72" departLane="best" from="15121027#0" to="15123616#1"/>
    <trip id="veh19" type="veh_passenger" depart="11.31" departLane="best" from="15115014#2" to="-488952831#0"/>
    <trip id="veh20" type="veh_passenger" depart="11.91" departLane="best" from="425105843#1" to="15114411#0"/>
    <trip id="veh21" type="veh_passenger" depart="12.50" departLane="best" from="15110151#0" to="15105848#2"/>
    <trip id="veh22" type="veh_passenger" depart="13.10" departLane="best" from="-15121200#4" to="1212388187"/>
    <trip id="veh23" type="veh_passenger" depart="13.69" departLane="best" from="335792152#1" to="15118921#1"/>
    <trip id="veh24" type="veh_passenger" depart="14.29" departLane="best" from="-445115661#1" to="361653562"/>
    <trip id="veh25" type="veh_passenger" depart="14.89" departLane="best" from="425114567#7" to="-15103053"/>
    <trip id="veh26" type="veh_passenger" depart="15.48" departLane="best" from="-15114409#0" to="-15121840#0"/>
    <trip id="veh27" type="veh_passenger" depart="16.08" departLane="best" from="-1196194150#0" to="15124304#6"/>
    <trip id="veh28" type="veh_passenger" depart="16.67" departLane="best" from="15114878#1" to="15106024#1"/>
    <trip id="veh29" type="veh_passenger" depart="17.27" departLane="best" from="888173956#1" to="-62874856#0"/>
    <trip id="veh30" type="veh_passenger" depart="17.86" departLane="best" departSpeed="max" from="-15117668" to="-15111998#2"/>
    <trip id="veh31" type="veh_passenger" depart="18.46" departLane="best" from="-425114567#0" to="425105845#13"/>
    <trip id="veh32" type="veh_passenger" depart="19.05" departLane="best" from="15111806#6" to="-15104913#1"/>
    <trip id="veh33" type="veh_passenger" depart="19.65" departLane="best" from="-888173921#0" to="-15103522#0"/>
    <trip id="veh34" type="veh_passenger" depart="20.24" departLane="best" from="15113026#17" to="-15112864#1"/>
    <trip id="veh35" type="veh_passenger" depart="20.84" departLane="best" from="-15115724" to="15115236#12"/>
    <trip id="veh36" type="veh_passenger" depart="21.44" departLane="best" from="425114564#2" to="15113583#1"/>
    <trip id="veh37" type="veh_passenger" depart="22.03" departLane="best" from="-176875288#7" to="15115236#4"/>
    <trip id="veh38" type="veh_passenger" depart="22.63" departLane="best" from="-15124143#0" to="-1079343042#0"/>
    <trip id="veh39" type="veh_passenger" depart="23.22" departLane="best" departSpeed="max" from="-15124303#5" to="15119484#2"/>
    <trip id="veh40" type="veh_passenger" depart="23.82" departLane="best" from="15113026#5" to="-15118637#4"/>
    <trip id="veh41" type="veh_passenger" depart="24.41" departLane="best" from="425117175#3" to="425103672#4"/>
    <trip id="veh42" type="veh_passenger" depart="25.01" departLane="best" from="-15124381#1" to="802372534#2"/>
    <trip id="veh43" type="veh_passenger" depart="25.60" departLane="best" from="-15123693#0" to="-15104913#5"/>
    <trip id="veh44" type="veh_passenger" depart="26.20" departLane="best" from="145135697" to="488963683"/>
    <trip id="veh45" type="veh_passenger" depart="26.79" departLane="best" from="15110776#2" to="15106460#2"/>
    <trip id="veh46" type="veh_passenger" depart="27.39" departLane="best" from="1307690293#3" to="-352308245#2"/>
    <trip id="veh47" type="veh_passenger" depart="27.98" departLane="best" from="-288917409#2" to="-823248753#0"/>
    <trip id="veh48" type="veh_passenger" depart="28.58" departLane="best" from="-15105056#2" to="-15124303#1"/>
    <trip id="veh49" type="veh_passenger" depart="29.18" departLane="best" from="734755440" to="15115837#0"/>
    <trip id="veh50" type="veh_passenger" depart="29.77" departLane="best" departSpeed="max" from="-15105058#4" to="1086685276#0"/>
    <trip id="veh51" type="veh_passenger" depart="30.37" departLane="best" from="15115011#10" to="707308441"/>
    <trip id="veh52" type="veh_passenger" depart="30.96" departLane="best" from="-15105937#0" to="62874870#2"/>
    <trip id="veh53" type="veh_passenger" depart="31.56" departLane="best" from="173877361#4-AddedOnRampEdge" to="-335792152#1"/>
    <trip id="veh54" type="veh_passenger" depart="32.15" departLane="best" departSpeed="max" from="15104873#0" to="365986968#6"/>
    <trip id="veh55" type="veh_passenger" depart="32.75" departLane="best" from="-15121872#1" to="15120325#2"/>
    <trip id="veh56" type="veh_passenger" depart="33.34" departLane="best" from="15106127#1" to="-15105395#0"/>
    <trip id="veh57" type="veh_passenger" depart="33.94" departLane="best" from="-15124079#0" to="-888173923#1"/>
    <trip id="veh58" type="veh_passenger" depart="34.53" departLane="best" departSpeed="max" from="-15122477#1" to="-15122542#5"/>
    <trip id="veh59" type="veh_passenger" depart="35.13" departLane="best" from="15110666#3" to="15104913#6"/>
    <trip id="veh60" type="veh_passenger" depart="35.73" departLane="best" departSpeed="max" from="-359590086#1" to="-478967612"/>
    <trip id="veh61" type="veh_passenger" depart="36.32" departLane="best" from="1428235009#2" to="707296938"/>
    <trip id="veh62" type="veh_passenger" depart="36.92" departLane="best" from="-15105158#2" to="707308441"/>
    <trip id="veh63" type="veh_passenger" depart="37.51" departLane="best" from="724754676" to="15118644"/>
    <trip id="veh64" type="veh_passenger" depart="38.11" departLane="best" from="802372534#5" to="15123736#8"/>
    <trip id="veh65" type="veh_passenger" depart="38.70" departLane="best" from="15118230#2" to="1158488310#23"/>
    <trip id="veh66" type="veh_passenger" depart="39.30" departLane="best" from="-15120076#9" to="15119635#1"/>
    <trip id="veh67" type="veh_passenger" depart="39.89" departLane="best" from="15123133#5" to="-1079343040#0"/>
    <trip id="veh68" type="veh_passenger" depart="40.49" departLane="best" from="-15119308#3" to="-15113026#5"/>
    <trip id="veh69" type="veh_passenger" depart="41.08" departLane="best" departSpeed="max" from="-15116019#2" to="-1204954328#0"/>
    <trip id="veh70" type="veh_passenger" depart="41.68" departLane="best" from="-15111806#9" to="-761098574#11"/>
    <trip id="veh71" type="veh_passenger" depart="42.27" departLane="best" from="1430785618" to="15115011#12"/>
    <trip id="veh72" type="veh_passenger" depart="42.87" departLane="best" from="-352308244#4" to="-15113026#22"/>
    <trip id="veh73" type="veh_passenger" depart="43.47" departLane="best" from="631056507#1" to="15114493#0"/>
    <trip id="veh74" type="veh_passenger" depart="44.06" departLane="best" from="15116787#1" to="15119624#1"/>
    <trip id="veh75" type="veh_passenger" depart="44.66" departLane="best" from="-364596842" to="15111812"/>
    <trip id="veh76" type="veh_passenger" depart="45.25" departLane="best" from="-359590086#0" to="15115565#1"/>
    <trip id="veh77" type="veh_passenger" depart="45.85" departLane="best" from="365986968#2" to="-1209243783#2"/>
    <trip id="veh78" type="veh_passenger" depart="46.44" departLane="best" from="335792152#2" to="-15112555#8"/>
    <trip id="veh79" type="veh_passenger" depart="47.04" departLane="best" from="-1196194150#7" to="-15105848#0"/>
    <trip id="veh80" type="veh_passenger" depart="47.63" departLane="best" from="15106460#1" to="488952830#0"/>
    <trip id="veh81" type="veh_passenger" depart="48.23" departLane="best" departSpeed="max" from="707308440#0" to="-15115167"/>
    <trip id="veh82" type="veh_passenger" depart="48.82" departLane="best" from="-823248759#0" to="737747964#4"/>
    <trip id="veh83" type="veh_passenger" depart="49.42" departLane="best" from="545676691#0" to="365986968#8"/>
    <trip id="veh84" type="veh_passenger" depart="50.02" departLane="best" from="-15122378#1" to="-288917409#7"/>
    <trip id="veh85" type="veh_passenger" depart="50.61" departLane="best" from="-15113586#5" to="-15124642#8"/>
    <trip id="veh86" type="veh_passenger" depart="51.21" departLane="best" from="15115236#7" to="-15115875#1"/>
    <trip id="veh87" type="veh_passenger" depart="51.80" departLane="best" from="-15115584#2" to="1158488310#4"/>
    <trip id="veh88" type="veh_passenger" depart="52.40" departLane="best" from="567933289#4" to="1343921271#1"/>
    <trip id="veh89" type="veh_passenger" depart="52.99" departLane="best" from="288917409#2" to="15119624#0"/>
    <trip id="veh90" type="veh_passenger" depart="53.59" departLane="best" from="489013102" to="15100208"/>
    <trip id="veh91" type="veh_passenger" depart="54.18" departLane="best" from="-716657423#3" to="123011256#3"/>
    <trip id="veh92" type="veh_passenger" depart="54.78" departLane="best" from="123011260#3" to="15115226#2"/>
    <trip id="veh93" type="veh_passenger" depart="55.37" departLane="best" from="-15115238#2" to="-15101889"/>
    <trip id="veh94" type="veh_passenger" depart="55.97" departLane="best" from="-15120263#3" to="-951341912"/>
    <trip id="veh95" type="veh_passenger" depart="56.56" departLane="best" from="-1428508043#1" to="-288917407#4"/>
    <trip id="veh96" type="veh_passenger" depart="57.16" departLane="best" from="732855504#2" to="1079343039#1"/>
    <trip id="veh97" type="veh_passenger" depart="57.76" departLane="best" from="-1079343039#3" to="352308244#2"/>
    <trip id="veh98" type="veh_passenger" depart="58.35" departLane="best" from="-288917411#2" to="-15115975#1"/>
    <trip id="veh99" type="veh_passenger" depart="58.95" departLane="best" from="15114109#4" to="15116029#2"/>
    <trip id="veh100" type="veh_passenger" depart="59.54" departLane="best" from="-365986968#12" to="15121321#2"/>
    <trip id="veh101" type="veh_passenger" depart="60.14" departLane="best" from="489013097#0" to="-596216236#7"/>
    <trip id="veh102" type="veh_passenger" depart="60.73" departLane="best" from="1428508043#1" to="-1079343040#0"/>
    <trip id="veh103" type="veh_passenger" depart="61.33" departLane="best" departSpeed="max" from="15110158" to="-357230038#0"/>
    <trip id="veh104" type="veh_passenger" depart="61.92" departLane="best" from="15115011#7" to="15124384#1"/>
    <trip id="veh105" type="veh_passenger" depart="62.52" departLane="best" from="-425114567#10" to="15116236#1"/>
    <trip id="veh106" type="veh_passenger" depart="63.11" departLane="best" from="732855504#0" to="-15115740#3"/>
    <trip id="veh107" type="veh_passenger" depart="63.71" departLane="best" from="352308244#0" to="1428508043#4"/>
    <trip id="veh108" type="veh_passenger" depart="64.31" departLane="best" from="734755440" to="-15105395#0"/>
    <trip id="veh109" type="veh_passenger" depart="64.90" departLane="best" departSpeed="max" from="-716657431" to="-15115236#27"/>
    <trip id="veh110" type="veh_passenger" depart="65.50" departLane="best" from="15104375#3" to="-62874858#0"/>
    <trip id="veh111" type="veh_passenger" depart="66.09" departLane="best" from="802372534#6" to="-15103636#3"/>
    <trip id="veh112" type="veh_passenger" depart="66.69" departLane="best" departSpeed="max" from="-1212388187" to="15124642#8"/>
    <trip id="veh113" type="veh_passenger" depart="67.28" departLane="best" from="15105842" to="425103673#4"/>
    <trip id="veh114" type="veh_passenger" depart="67.88" departLane="best" from="-425103673#3" to="-15122378#0"/>
    <trip id="veh115" type="veh_passenger" depart="68.47" departLane="best" departSpeed="max" from="489013120" to="15105126#2"/>
    <trip id="veh116" type="veh_passenger" depart="69.07" departLane="best" from="-1428235008#3" to="-1158488310#19"/>
    <trip id="veh117" type="veh_passenger" depart="69.66" departLane="best" from="-1196194150#5" to="15122946#1"/>
    <trip id="veh118" type="veh_passenger" depart="70.26" departLane="best" from="15114128#1" to="-15112003#1"/>
    <trip id="veh119" type="veh_passenger" depart="70.85" departLane="best" from="335792152#7" to="173877361#5-AddedOnRampEdge"/>
    <trip id="veh120" type="veh_passenger" depart="71.45" departLane="best" from="15113339#2" to="15110470#0"/>
    <trip id="veh121" type="veh_passenger" depart="72.05" departLane="best" from="-888173923#0" to="15119861#1"/>
    <trip id="veh122" type="veh_passenger" depart="72.64" departLane="best" from="15110151#5" to="15117573#1"/>
    <trip id="veh123" type="veh_passenger" depart="73.24" departLane="best" departSpeed="max" from="707308440#0" to="888173932#0"/>
    <trip id="veh124" type="veh_passenger" depart="73.83" departLane="best" from="15104599#0" to="-15111998#9"/>
    <trip id="veh125" type="veh_passenger" depart="74.43" departLane="best" from="15103522#19" to="716657429#1"/>
    <trip id="veh126" type="veh_passenger" depart="75.02" departLane="best" from="-15118637#1" to="-15124384#0"/>
    <trip id="veh127" type="veh_passenger" depart="75.62" departLane="best" departSpeed="max" from="-15124304#11" to="-15122561#0"/>
    <trip id="veh128" type="veh_passenger" depart="76.21" departLane="best" from="361653559" to="15105158#3"/>
    <trip id="veh129" type="veh_passenger" depart="76.81" departLane="best" from="-15106024#1" to="15104358#1"/>
    <trip id="veh130" type="veh_passenger" depart="77.40" departLane="best" from="15119338#5" to="-1343921272"/>
    <trip id="veh131" type="veh_passenger" depart="78.00" departLane="best" from="-15116787#1" to="-1196194150#5"/>
    <trip id="veh132" type="veh_passenger" depart="78.60" departLane="best" from="15119338#5" to="-802372534#3"/>
    <trip id="veh133" type="veh_passenger" depart="79.19" departLane="best" from="-1158488310#4" to="-15123783#0"/>
    <trip id="veh134" type="veh_passenger" depart="79.79" departLane="best" from="-15116254" to="15109108"/>
    <trip id="veh135" type="veh_passenger" depart="80.38" departLane="best" from="-823248756#0" to="-888173941#2"/>
    <trip id="veh136" type="veh_passenger" depart="80.98" departLane="best" from="-425103286#1" to="-145186677#2"/>
    <trip id="veh137" type="veh_passenger" depart="81.57" departLane="best" from="-365986968#3" to="15114878#1"/>
    <trip id="veh138" type="veh_passenger" depart="82.17" departLane="best" from="15104913#13" to="15111019#0"/>
    <trip id="veh139" type="veh_passenger" depart="82.76" departLane="best" from="-15114453#4" to="-15101889"/>
    <trip id="veh140" type="veh_passenger" depart="83.36" departLane="best" from="15124636#1" to="15121656"/>
    <trip id="veh141" type="veh_passenger" depart="83.95" departLane="best" from="15115236#23" to="802372534#8"/>
    <trip id="veh142" type="veh_passenger" depart="84.55" departLane="best" from="-335792152#7" to="15123133#3"/>
    <trip id="veh143" type="veh_passenger" depart="85.15" departLane="best" from="-15124642#5" to="15112555#2"/>
    <trip id="veh144" type="veh_passenger" depart="85.74" departLane="best" from="62380383#0" to="1212388187"/>
    <trip id="veh145" type="veh_passenger" depart="86.34" departLane="best" from="15112706#1" to="888173941#2"/>
    <trip id="veh146" type="veh_passenger" depart="86.93" departLane="best" departSpeed="max" from="1315773873#0" to="-15123370#1"/>
    <trip id="veh147" type="veh_passenger" depart="87.53" departLane="best" from="761098575#2" to="15117668"/>
    <trip id="veh148" type="veh_passenger" depart="88.12" departLane="best" from="-365986968#2" to="-288917409#8"/>
    <trip id="veh149" type="veh_passenger" depart="88.72" departLane="best" from="-1262168710#1" to="-15107453"/>
    <trip id="veh150" type="veh_passenger" depart="89.31" departLane="best" from="888173928" to="15107974#1"/>
    <trip id="veh151" type="veh_passenger" depart="89.91" departLane="best" departSpeed="max" from="176875288#0" to="-15123690#0"/>
    <trip id="veh152" type="veh_passenger" depart="90.50" departLane="best" from="425117175#4" to="15120774#2"/>
    <trip id="veh153" type="veh_passenger" depart="91.10" departLane="best" from="488991297#1" to="144424817#2"/>
    <trip id="veh154" type="veh_passenger" depart="91.69" departLane="best" from="62874870#6" to="15109108"/>
    <trip id="veh155" type="veh_passenger" depart="92.29" departLane="best" departSpeed="max" from="-15113309" to="700469606"/>
    <trip id="veh156" type="veh_passenger" depart="92.89" departLane="best" from="-288917409#9" to="724657000#2"/>
    <trip id="veh157" type="veh_passenger" depart="93.48" departLane="best" departSpeed="max" from="15105126#0" to="-802372534#3"/>
    <trip id="veh158" type="veh_passenger" depart="94.08" departLane="best" departSpeed="max" from="15103053" to="-724657000#3"/>
    <trip id="veh159" type="veh_passenger" depart="94.67" departLane="best" from="-15105156#3" to="-15103299#3"/>
    <trip id="veh160" type="veh_passenger" depart="95.27" departLane="best" departSpeed="max" from="-15105937#1" to="62874870#7"/>
    <trip id="veh161" type="veh_passenger" depart="95.86" departLane="best" departSpeed="max" from="-488952831#1" to="-1315771807#3"/>
    <trip id="veh162" type="veh_passenger" depart="96.46" departLane="best" from="-737405621#2" to="15114881#2"/>
    <trip id="veh163" type="veh_passenger" depart="97.05" departLane="best" departSpeed="max" from="15114044#0" to="716657423#1"/>
    <trip id="veh164" type="veh_passenger" depart="97.65" departLane="best" from="-488959819#1" to="770236818"/>
    <trip id="veh165" type="veh_passenger" depart="98.24" departLane="best" from="-1158488310#21" to="-15115226#1"/>
    <trip id="veh166" type="veh_passenger" depart="98.84" departLane="best" departSpeed="max" from="1315773873#0" to="15115236#9"/>
    <trip id="veh167" type="veh_passenger" depart="99.44" departLane="best" from="-802372534#10" to="176875288#6"/>
    <trip id="veh168" type="veh_passenger" depart="100.03" departLane="best" from="15105056#0" to="-1024165020#0"/>
    <trip id="veh169" type="veh_passenger" depart="100.63" departLane="best" from="-724754676" to="15115226#0"/>
    <trip id="veh170" type="veh_passenger" depart="101.22" departLane="best" departSpeed="max" from="-15123291#1" to="-15118037#2"/>
    <trip id="veh171" type="veh_passenger" depart="101.82" departLane="best" from="15114453#2" to="123011288#1"/>
    <trip id="veh172" type="veh_passenger" depart="102.41" departLane="best" from="888173945#1" to="761110430#5"/>
    <trip id="veh173" type="veh_passenger" depart="103.01" departLane="best" from="-352308244#1" to="-1428508043#5"/>
    <trip id="veh174" type="veh_passenger" depart="103.60" departLane="best" departSpeed="max" from="-15115413" to="1046362632#0"/>
    <trip id="veh175" type="veh_passenger" depart="104.20" departLane="best" from="-822656749#1" to="1024165020#5"/>
    <trip id="veh176" type="veh_passenger" depart="104.79" departLane="best" from="-76330965#1" to="15124311#1"/>
    <trip id="veh177" type="veh_passenger" depart="105.39" departLane="best" departSpeed="max" from="-15111182#3" to="15114878#1"/>
    <trip id="veh178" type="veh_passenger" depart="105.98" departLane="best" departSpeed="max" from="-716657424" to="173877361#5"/>
    <trip id="veh179" type="veh_passenger" depart="106.58" departLane="best" from="15117573#1" to="-15118536#1"/>
    <trip id="veh180" type="veh_passenger" depart="107.18" departLane="best" from="15120238#0" to="-716657427#1"/>
    <trip id="veh181" type="veh_passenger" depart="107.77" departLane="best" from="425105845#4" to="-1307690293#0"/>
    <trip id="veh182" type="veh_passenger" depart="108.37" departLane="best" from="15108003#4" to="-15123320#0"/>
    <trip id="veh183" type="veh_passenger" depart="108.96" departLane="best" from="488952830#3" to="-352669796"/>
    <trip id="veh184" type="veh_passenger" depart="109.56" departLane="best" from="15118635#0" to="802372534#10"/>
    <trip id="veh185" type="veh_passenger" depart="110.15" departLane="best" from="-15108322#0" to="488991300"/>
    <trip id="veh186" type="veh_passenger" depart="110.75" departLane="best" from="-15115259" to="1196194150#8"/>
    <trip id="veh187" type="veh_passenger" depart="111.34" departLane="best" from="-15111780" to="724754670#3"/>
    <trip id="veh188" type="veh_passenger" depart="111.94" departLane="best" departSpeed="max" from="-352337528#1" to="15104598#1"/>
    <trip id="veh189" type="veh_passenger" depart="112.53" departLane="best" departSpeed="max" from="823582255#0" to="-15114453#2"/>
    <trip id="veh190" type="veh_passenger" depart="113.13" departLane="best" from="-15105156#3" to="15120076#3"/>
    <trip id="veh191" type="veh_passenger" depart="113.73" departLane="best" from="-15103050#2" to="-15113026#18"/>
    <trip id="veh192" type="veh_passenger" depart="114.32" departLane="best" from="-15123133#0" to="-1158488310#20"/>
    <trip id="veh193" type="veh_passenger" depart="114.92" departLane="best" from="-425117175#1" to="-15104598#0"/>
    <trip id="veh194" type="veh_passenger" depart="115.51" departLane="best" from="724656996#0" to="15104352#1"/>
    <trip id="veh195" type="veh_passenger" depart="116.11" departLane="best" from="-1428235009#0" to="15124079#0"/>
    <trip id="veh196" type="veh_passenger" depart="116.70" departLane="best" from="-15121709#0" to="489013111#2"/>
    <trip id="veh197" type="veh_passenger" depart="117.30" departLane="best" from="-1428508045" to="-15112833#4"/>
    <trip id="veh198" type="veh_passenger" depart="117.89" departLane="best" from="-642998074#0" to="365986968#15"/>
    <trip id="veh199" type="veh_passenger" depart="118.49" departLane="best" from="724657000#2" to="820848992"/>
    <trip id="veh200" type="veh_passenger" depart="119.08" departLane="best" from="-15118591#0" to="-724657000#2"/>
    <trip id="veh201" type="veh_passenger" depart="119.68" departLane="best" from="488952824-AddedOnRampEdge" to="357230038#2"/>
    <trip id="veh202" type="veh_passenger" depart="120.27" departLane="best" from="724754682#1" to="-15106639#0"/>
    <trip id="veh203" type="veh_passenger" depart="120.87" departLane="best" from="-1431960792" to="-802372535"/>
    <trip id="veh204" type="veh_passenger" depart="121.47" departLane="best" from="443049142#1" to="15119547"/>
    <trip id="veh205" type="veh_passenger" depart="122.06" departLane="best" from="-781993329#1" to="15118637#1"/>
    <trip id="veh206" type="veh_passenger" depart="122.66" departLane="best" from="-888173946#0" to="425103674#0"/>
    <trip id="veh207" type="veh_passenger" depart="123.25" departLane="best" from="-15124642#13" to="15124304#11"/>
    <trip id="veh208" type="veh_passenger" depart="123.85" departLane="best" from="-15114054#5" to="15111647#1"/>
    <trip id="veh209" type="veh_passenger" depart="124.44" departLane="best" from="-15123749#6" to="-1428508043#2"/>
    <trip id="veh210" type="veh_passenger" depart="125.04" departLane="best" departSpeed="max" from="-15107230#6" to="15116787#1"/>
    <trip id="veh211" type="veh_passenger" depart="125.63" departLane="best" from="15115724" to="15115875#0"/>
    <trip id="veh212" type="veh_passenger" depart="126.23" departLane="best" from="-848246039#1" to="15111647#2"/>
    <trip id="veh213" type="veh_passenger" depart="126.82" departLane="best" from="335792152#11" to="888173934#1"/>
    <trip id="veh214" type="veh_passenger" depart="127.42" departLane="best" departSpeed="max" from="-724754679#1" to="15123910#3"/>
    <trip id="veh215" type="veh_passenger" depart="128.02" departLane="best" from="361653555#1" to="425114567#3"/>
    <trip id="veh216" type="veh_passenger" depart="128.61" departLane="best" from="15115888#0" to="-15122378#1"/>
    <trip id="veh217" type="veh_passenger" depart="129.21" departLane="best" from="361653559" to="15107974#2"/>
    <trip id="veh218" type="veh_passenger" depart="129.80" departLane="best" departSpeed="max" from="15123736#0" to="15123783#1"/>
    <trip id="veh219" type="veh_passenger" depart="130.40" departLane="best" departSpeed="max" from="-15118591#1" to="-15105157#1"/>
    <trip id="veh220" type="veh_passenger" depart="130.99" departLane="best" from="176875288#9" to="15116107#3"/>
    <trip id="veh221" type="veh_passenger" depart="131.59" departLane="best" from="-1209243783#0" to="-15103435#0"/>
    <trip id="veh222" type="veh_passenger" depart="132.18" departLane="best" departSpeed="max" from="-820848992" to="15115565#1"/>
    <trip id="veh223" type="veh_passenger" depart="132.78" departLane="best" from="-425117175#6" to="15115257#5"/>
    <trip id="veh224" type="veh_passenger" depart="133.37" departLane="best" from="-15124143#2" to="-15122981#0"/>
    <trip id="veh225" type="veh_passenger" depart="133.97" departLane="best" departSpeed="max" from="-15113583#1" to="15119308#2"/>
    <trip id="veh226" type="veh_passenger" depart="134.56" departLane="best" from="15113026#17" to="-15105126#0"/>
    <trip id="veh227" type="veh_passenger" depart="135.16" departLane="best" departSpeed="max" from="-15111006#2" to="425103674#4"/>
    <trip id="veh228" type="veh_passenger" depart="135.76" departLane="best" from="-15123616#2" to="724754675"/>
    <trip id="veh229" type="veh_passenger" depart="136.35" departLane="best" from="888173922" to="356237043#1"/>
    <trip id="veh230" type="veh_passenger" depart="136.95" departLane="best" from="-15113026#22" to="-15111019#0"/>
    <trip id="veh231" type="veh_passenger" depart="137.54" departLane="best" from="425103674#0" to="-888173931#2"/>
    <trip id="veh232" type="veh_passenger" depart="138.14" departLane="best" from="-1428508043#0" to="-15111182#0"/>
    <trip id="veh233" type="veh_passenger" depart="138.73" departLane="best" departSpeed="max" from="-15124567#10" to="-15123797#0"/>
    <trip id="veh234" type="veh_passenger" depart="139.33" departLane="best" departSpeed="max" from="-1430540285" to="15121840#0"/>
    <trip id="veh235" type="veh_passenger" depart="139.92" departLane="best" from="15119628#1" to="15124184"/>
    <trip id="veh236" type="veh_passenger" depart="140.52" departLane="best" from="288917409#9" to="-15123281#1"/>
    <trip id="veh237" type="veh_passenger" depart="141.11" departLane="best" from="-15115236#14" to="15113583#1"/>
    <trip id="veh238" type="veh_passenger" depart="141.71" departLane="best" from="356236380#1" to="15123690#1"/>
    <trip id="veh239" type="veh_passenger" depart="142.31" departLane="best" from="15123690#0" to="-888173930#10"/>
    <trip id="veh240" type="veh_passenger" depart="142.90" departLane="best" departSpeed="max" from="15121530" to="700469607"/>
    <trip id="veh241" type="veh_passenger" depart="143.50" departLane="best" from="15112706#4" to="-15114409#0"/>
    <trip id="veh242" type="veh_passenger" depart="144.09" departLane="best" from="425103673#0" to="-1430786531"/>
    <trip id="veh243" type="veh_passenger" depart="144.69" departLane="best" from="-1158488310#17" to="-365986968#15"/>
    <trip id="veh244" type="veh_passenger" depart="145.28" departLane="best" departSpeed="max" from="-707296940" to="823248756#3"/>
    <trip id="veh245" type="veh_passenger" depart="145.88" departLane="best" from="15123222#0" to="1079341892#3"/>
    <trip id="veh246" type="veh_passenger" depart="146.47" departLane="best" departSpeed="max" from="62042636" to="15113339#2"/>
    <trip id="veh247" type="veh_passenger" depart="147.07" departLane="best" from="-62380334#7" to="732856288"/>
    <trip id="veh248" type="veh_passenger" depart="147.66" departLane="best" from="802372534#10" to="-15104872#1"/>
    <trip id="veh249" type="veh_passenger" depart="148.26" departLane="best" from="489013097#1" to="1196194150#0"/>
    <trip id="veh250" type="veh_passenger" depart="148.85" departLane="best" departSpeed="max" from="-820848992" to="1079341892#4"/>
    <trip id="veh251" type="veh_passenger" depart="149.45" departLane="best" departSpeed="max" from="-15121656" to="15118644"/>
    <trip id="veh252" type="veh_passenger" depart="150.05" departLane="best" departSpeed="max" from="15121530" to="15117348#1"/>