<?xml version="1.0" encoding="UTF-8"?>

<!-- generated on 2025-10-13 16:08:04 by Eclipse SUMO netedit Version 1.24.0
-->

<routes xmlns:xsi="http://www.w3.org/2001/XMLSchema-instance" xsi:noNamespaceSchemaLocation="http://sumo.dlr.de/xsd/routes_file.xsd">
    <!-- VTypes -->
    <vType id="motorcycle_motorcycle" vClass="motorcycle"/>
    <!-- Vehicles, persons and containers (sorted by depart) -->
    <trip id="motorcycle0" type="motorcycle_motorcycle" depart="0.00" departLane="best" from="15115548" to="173877361#4-AddedOnRampEdge"/>
    <trip id="motorcycle1" type="motorcycle_motorcycle" depart="1.78" departLane="best" from="-888173934#0" to="1428508043#2"/>
    <trip id="motorcycle2" type="motorcycle_motorcycle" depart="3.56" departLane="best" from="15124303#1" to="15111019#0"/>
    <trip id="motorcycle3" type="motorcycle_motorcycle" depart="5.34" departLane="best" from="15124567#1" to="-15103522#22"/>
    <trip id="motorcycle4" type="motorcycle_motorcycle" depart="7.13" departLane="best" from="15120076#6" to="-15103050#0"/>
    <trip id="motorcycle5" type="motorcycle_motorcycle" depart="8.91" departLane="best" from="15119861#4" to="-15110018#0"/>
    <trip id="motorcycle6" type="motorcycle_motorcycle" depart="10.69" departLane="best" from="-724754670#3" to="15117113"/>
    <trip id="motorcycle7" type="motorcycle_motorcycle" depart="12.47" departLane="best" from="-15115837#1" to="-15115784#3"/>
    <trip id="motorcycle8" type="motorcycle_motorcycle" depart="14.25" departLane="best" from="478967611#1" to="761098574#6"/>
    <trip id="motorcycle9" type="motorcycle_motorcycle" depart="16.03" departLane="best" from="-15122981#1" to="-15113111#0"/>
    <trip id="motorcycle10" type="motorcycle_motorcycle" depart="17.81" departLane="best" from="145135694#4" to="15108860#1"/>
    <trip id="motorcycle11" type="motorcycle_motorcycle" depart="19.60" departLane="best" from="15114054#2" to="352308244#5"/>
    <trip id="motorcycle12" type="motorcycle_motorcycle" depart="21.38" departLane="best" from="596216236#15" to="-15121321#1"/>
    <trip id="motorcycle13" type="motorcycle_motorcycle" depart="23.16" departLane="best" from="-888173951#7" to="-288917408"/>
    <trip id="motorcycle14" type="motorcycle_motorcycle" depart="24.94" departLane="best" from="-15123370#0" to="-15113586#3"/>
    <trip id="motorcycle15" type="motorcycle_motorcycle" depart="26.72" departLane="best" from="164254382#2" to="-15119861#0"/>
    <trip id="motorcycle16" type="motorcycle_motorcycle" depart="28.50" departLane="best" from="-15118078#1" to="15118816"/>
    <trip id="motorcycle17" type="motorcycle_motorcycle" depart="30.29" departLane="best" departSpeed="max" from="-358443481#1" to="-15103053"/>
    <trip id="motorcycle18" type="motorcycle_motorcycle" depart="32.07" departLane="best" from="-724754682#3" to="15113339#2"/>
    <trip id="motorcycle19" type="motorcycle_motorcycle" depart="33.85" departLane="best" from="15103050#1" to="-15121321#0"/>
    <trip id="motorcycle20" type="motorcycle_motorcycle" depart="35.63" departLane="best" from="-288917411#1" to="-15110666#3"/>
    <trip id="motorcycle21" type="motorcycle_motorcycle" depart="37.41" departLane="best" from="15114247#2" to="-293713566#4"/>
    <trip id="motorcycle22" type="motorcycle_motorcycle" depart="39.19" departLane="best" from="596216236#8" to="-888173941#0"/>
    <trip id="motorcycle23" type="motorcycle_motorcycle" depart="40.97" departLane="best" from="361653561#0" to="176875123#2"/>
    <trip id="motorcycle24" type="motorcycle_motorcycle" depart="42.76" departLane="best" from="-62874870#2" to="15105156#1"/>
    <trip id="motorcycle25" type="motorcycle_motorcycle" depart="44.54" departLane="best" from="15118270#3" to="-15113302#0"/>
    <trip id="motorcycle26" type="motorcycle_motorcycle" depart="46.32" departLane="best" from="-888173942#1" to="15118637#3"/>
    <trip id="motorcycle27" type="motorcycle_motorcycle" depart="48.10" departLane="best" from="596216238#3" to="596216238#2"/>
    <trip id="motorcycle28" type="motorcycle_motorcycle" depart="49.88" departLane="best" from="-761098575#1" to="-478967611#9"/>
    <trip id="motorcycle29" type="motorcycle_motorcycle" depart="51.66" departLane="best" from="-356236380#0" to="62874839#0"/>
    <trip id="motorcycle30" type="motorcycle_motorcycle" depart="53.44" departLane="best" from="15122378#3" to="15113026#8"/>
    <trip id="motorcycle31" type="motorcycle_motorcycle" depart="55.23" departLane="best" from="15121321#3" to="145186681#6"/>
    <trip id="motorcycle32" type="motorcycle_motorcycle" depart="57.01" departLane="best" departSpeed="max" from="-732856289" to="561138825#3"/>
    <trip id="motorcycle33" type="motorcycle_motorcycle" depart="58.79" departLane="best" from="15113586#8" to="-888173941#0"/>
    <trip id="motorcycle34" type="motorcycle_motorcycle" depart="60.57" departLane="best" from="-15122542#3" to="-15107775"/>
    <trip id="motorcycle35" type="motorcycle_motorcycle" depart="62.35" departLane="best" from="123011297#2" to="-123011311"/>
    <trip id="motorcycle36" type="motorcycle_motorcycle" depart="64.13" departLane="best" from="-608506493#1" to="15119624#1"/>
    <trip id="motorcycle37" type="motorcycle_motorcycle" depart="65.91" departLane="best" from="15110265" to="15122478#1"/>
    <trip id="motorcycle38" type="motorcycle_motorcycle" depart="67.70" departLane="best" from="-15120263#4" to="-15112706#1"/>
    <trip id="motorcycle39" type="motorcycle_motorcycle" depart="69.48" departLane="best" from="15111710#3" to="15120578#1"/>
    <trip id="motorcycle40" type="motorcycle_motorcycle" depart="71.26" departLane="best" from="-15124567#6" to="145186677#2"/>
    <trip id="motorcycle41" type="motorcycle_motorcycle" depart="73.04" departLane="best" from="-123011256#0" to="15120985"/>
    <trip id="motorcycle42" type="motorcycle_motorcycle" depart="74.82" departLane="best" from="724657002" to="365986968#4"/>
    <trip id="motorcycle43" type="motorcycle_motorcycle" depart="76.60" departLane="best" from="15113026#12" to="15118270#2"/>
    <trip id="motorcycle44" type="motorcycle_motorcycle" depart="78.38" departLane="best" from="15108003#4" to="176875270"/>
    <trip id="motorcycle45" type="motorcycle_motorcycle" depart="80.17" departLane="best" from="15104913#5" to="561138826"/>
    <trip id="motorcycle46" type="motorcycle_motorcycle" depart="81.95" departLane="best" from="-15123749#9" to="15113586#3"/>
    <trip id="motorcycle47" type="motorcycle_motorcycle" depart="83.73" departLane="best" from="-15110776#2" to="-288917411#3"/>
    <trip id="motorcycle48" type="motorcycle_motorcycle" depart="85.51" departLane="best" from="-15114411#0" to="-15124870#1"/>
    <trip id="motorcycle49" type="motorcycle_motorcycle" depart="87.29" departLane="best" from="-15107230#2" to="-15119861#5"/>
    <trip id="motorcycle50" type="motorcycle_motorcycle" depart="89.07" departLane="best" departSpeed="max" from="15115167" to="-62380383#0"/>
    <trip id="motorcycle51" type="motorcycle_motorcycle" depart="90.86" departLane="best" from="288917409#7" to="-15122285"/>
    <trip id="motorcycle52" type="motorcycle_motorcycle" depart="92.64" departLane="best" from="-15119306" to="15124642#9"/>
    <trip id="motorcycle53" type="motorcycle_motorcycle" depart="94.42" departLane="best" from="-15108860#0" to="-888173937"/>
    <trip id="motorcycle54" type="motorcycle_motorcycle" depart="96.20" departLane="best" from="-123011256#1" to="631056501"/>
    <trip id="motorcycle55" type="motorcycle_motorcycle" depart="97.98" departLane="best" from="15122542#7" to="723517746#0"/>
    <trip id="motorcycle56" type="motorcycle_motorcycle" depart="99.76" departLane="best" from="15120325#1" to="144424863#0"/>
    <trip id="motorcycle57" type="motorcycle_motorcycle" depart="101.54" departLane="best" from="724754681#1" to="724754682#9"/>
    <trip id="motorcycle58" type="motorcycle_motorcycle" depart="103.33" departLane="best" from="-707308439#3" to="15123291#1"/>
    <trip id="motorcycle59" type="motorcycle_motorcycle" depart="105.11" departLane="best" from="15113586#8" to="15108903#7"/>
    <trip id="motorcycle60" type="motorcycle_motorcycle" depart="106.89" departLane="best" from="-15103522#1" to="-15118637#2"/>
    <trip id="motorcycle61" type="motorcycle_motorcycle" depart="108.67" departLane="best" from="15123616#4" to="15106881"/>
    <trip id="motorcycle62" type="motorcycle_motorcycle" depart="110.45" departLane="best" from="15114881#7" to="15115666#0"/>
    <trip id="motorcycle63" type="motorcycle_motorcycle" depart="112.23" departLane="best" from="596216234#0" to="15104596#3"/>
    <trip id="motorcycle64" type="motorcycle_motorcycle" depart="114.01" departLane="best" from="-15111998#2" to="15111803#0"/>
    <trip id="motorcycle65" type="motorcycle_motorcycle" depart="115.80" departLane="best" from="-1196194150#13" to="-15120076#0"/>
    <trip id="motorcycle66" type="motorcycle_motorcycle" depart="117.58" departLane="best" from="15109111#2" to="15105644#1"/>
    <trip id="motorcycle67" type="motorcycle_motorcycle" depart="119.36" departLane="best" from="15115236#16" to="15109286#0"/>
    <trip id="motorcycle68" type="motorcycle_motorcycle" depart="121.14" departLane="best" from="288917409#5" to="-547804729"/>
    <trip id="motorcycle69" type="motorcycle_motorcycle" depart="122.92" departLane="best" from="-15116236#1" to="631056507#2"/>
    <trip id="motorcycle70" type="motorcycle_motorcycle" depart="124.70" departLane="best" from="-15123783#5" to="288917411#1"/>
    <trip id="motorcycle71" type="motorcycle_motorcycle" depart="126.48" departLane="best" departSpeed="max" from="1065535414" to="123011256#4"/>
    <trip id="motorcycle72" type="motorcycle_motorcycle" depart="128.27" departLane="best" from="-15111806#8" to="15114164#1"/>
    <trip id="motorcycle73" type="motorcycle_motorcycle" depart="130.05" departLane="best" from="15103453" to="15124304#5"/>
    <trip id="motorcycle74" type="motorcycle_motorcycle" depart="131.83" departLane="best" departSpeed="max" from="-716657428" to="724657099#7"/>
    <trip id="motorcycle75" type="motorcycle_motorcycle" depart="133.61" departLane="best" from="-164254382#2" to="-15105158#3"/>
    <trip id="motorcycle76" type="motorcycle_motorcycle" depart="135.39" departLane="best" from="888173930#1" to="15123133#5"/>
    <trip id="motorcycle77" type="motorcycle_motorcycle" depart="137.17" departLane="best" from="-15122188#1" to="724656996#2"/>
    <trip id="motorcycle78" type="motorcycle_motorcycle" depart="138.95" departLane="best" from="425105845#2" to="173877361#5"/>
    <trip id="motorcycle79" type="motorcycle_motorcycle" depart="140.74" departLane="best" from="888173933" to="596216237#0"/>
    <trip id="motorcycle80" type="motorcycle_motorcycle" depart="142.52" departLane="best" from="15103522#22" to="888173932#4"/>
    <trip id="motorcycle81" type="motorcycle_motorcycle" depart="144.30" departLane="best" from="-840825305#1" to="15117573#0"/>
    <trip id="motorcycle82" type="motorcycle_motorcycle" depart="146.08" departLane="best" from="15103522#9" to="-1430786531"/>
    <trip id="motorcycle83" type="motorcycle_motorcycle" depart="147.86" departLane="best" from="-561138825#2" to="716657423#6"/>
    <trip id="motorcycle84" type="motorcycle_motorcycle" depart="149.64" departLane="best" from="15108000#1" to="596216238#1"/>
    <trip id="motorcycle85" type="motorcycle_motorcycle" depart="151.43" departLane="best" from="-15117576#0" to="-723289936#2"/>
    <trip id="motorcycle86" type="motorcycle_motorcycle" depart="153.21" departLane="best" from="-357230038#0" to="293713565"/>
    <trip id="motorcycle87" type="motorcycle_motorcycle" depart="154.99" departLane="best" from="15106131#2" to="15114044#1"/>
    <trip id="motorcycle88" type="motorcycle_motorcycle" depart="156.77" departLane="best" from="-888173942#2" to="-15111998#0"/>
    <trip id="motorcycle89" type="motorcycle_motorcycle" depart="158.55" departLane="best" from="-15114956#2" to="724754679#0"/>
    <trip id="motorcycle90" type="motorcycle_motorcycle" depart="160.33" departLane="best" from="-15115236#13" to="15115784#5"/>
    <trip id="motorcycle91" type="motorcycle_motorcycle" depart="162.11" departLane="best" from="-15115314#1" to="888173931#0"/>
    <trip id="motorcycle92" type="motorcycle_motorcycle" depart="163.90" departLane="best" from="888173945#0" to="15122477#1"/>
    <trip id="motorcycle93" type="motorcycle_motorcycle" depart="165.68" departLane="best" from="15107357#1" to="15116107#2"/>
    <trip id="motorcycle94" type="motorcycle_motorcycle" depart="167.46" departLane="best" from="-15123370#0" to="15114881#0"/>
    <trip id="motorcycle95" type="motorcycle_motorcycle" depart="169.24" departLane="best" from="15113026#22" to="15121200#4"/>
    <trip id="motorcycle96" type="motorcycle_motorcycle" depart="171.02" departLane="best" from="1428235008#4" to="15105058#4"/>
    <trip id="motorcycle97" type="motorcycle_motorcycle" depart="172.80" departLane="best" from="-15105157#1" to="-15122048#3"/>
    <trip id="motorcycle98" type="motorcycle_motorcycle" depart="174.58" departLane="best" from="15113808#0" to="15103050#4"/>
    <trip id="motorcycle99" type="motorcycle_motorcycle" depart="176.37" departLane="best" from="-365986968#6" to="-15123910#2"/>
    <trip id="motorcycle100" type="motorcycle_motorcycle" depart="178.15" departLane="best" from="-15104102" to="15115238#0"/>
    <trip id="motorcycle101" type="motorcycle_motorcycle" depart="179.93" departLane="best" from="15106880#0" to="761110430#3"/>
    <trip id="motorcycle102" type="motorcycle_motorcycle" depart="181.71" departLane="best" departSpeed="max" from="-15120325#2" to="-15115236#8"/>
    <trip id="motorcycle103" type="motorcycle_motorcycle" depart="183.49" departLane="best" from="888173931#2" to="-888173930#5"/>
    <trip id="motorcycle104" type="motorcycle_motorcycle" depart="185.27" departLane="best" from="15106639#1" to="123011256#1"/>
    <trip id="motorcycle105" type="motorcycle_motorcycle" depart="187.05" departLane="best" from="15124473#1" to="-15106131#4"/>
    <trip id="motorcycle106" type="motorcycle_motorcycle" depart="188.84" departLane="best" from="-15124079#0" to="-888173951#3"/>
    <trip id="motorcycle107" type="motorcycle_motorcycle" depart="190.62" departLane="best" from="888173956#2-AddedOnRampEdge" to="-15112555#8"/>
    <trip id="motorcycle108" type="motorcycle_motorcycle" depart="192.40" departLane="best" departSpeed="max" from="-15124303#5" to="1079341892#0"/>
    <trip id="motorcycle109" type="motorcycle_motorcycle" depart="194.18" departLane="best" from="-15124304#4" to="15124304#11"/>
    <trip id="motorcycle110" type="motorcycle_motorcycle" depart="195.96" departLane="best" from="15111008#0" to="-288917409#8"/>
    <trip id="motorcycle111" type="motorcycle_motorcycle" depart="197.74" departLane="best" from="-15115797" to="15120364#1"/>
    <trip id="motorcycle112" type="motorcycle_motorcycle" depart="199.52" departLane="best" from="288917409#3" to="15103522#22"/>
    <trip id="motorcycle113" type="motorcycle_motorcycle" depart="201.31" departLane="best" from="15117669#3" to="-15121552"/>
    <trip id="motorcycle114" type="motorcycle_motorcycle" depart="203.09" departLane="best" from="63514838#1" to="-888173945#1"/>
    <trip id="motorcycle115" type="motorcycle_motorcycle" depart="204.87" departLane="best" from="888173951#8" to="-15113026#6"/>
    <trip id="motorcycle116" type="motorcycle_motorcycle" depart="206.65" departLane="best" from="15120076#2" to="15114247#4"/>
    <trip id="motorcycle117" type="motorcycle_motorcycle" depart="208.43" departLane="best" from="-15114163#2" to="-1196194150#11"/>
    <trip id="motorcycle118" type="motorcycle_motorcycle" depart="210.21" departLane="best" from="15103050#5" to="-724754682#2"/>
    <trip id="motorcycle119" type="motorcycle_motorcycle" depart="212.00" departLane="best" from="15120263#3" to="1428235008#4"/>
    <trip id="motorcycle120" type="motorcycle_motorcycle" depart="213.78" departLane="best" from="288917407#0" to="-15115236#0"/>
    <trip id="motorcycle121" type="motorcycle_motorcycle" depart="215.56" departLane="best" from="-888173950#0" to="596216234#5"/>
    <trip id="motorcycle122" type="motorcycle_motorcycle" depart="217.34" departLane="best" from="-15123910#1" to="15118035#2"/>
    <trip id="motorcycle123" type="motorcycle_motorcycle" depart="219.12" departLane="best" from="-443048895#0" to="15124642#12"/>
    <trip id="motorcycle124" type="motorcycle_motorcycle" depart="220.90" departLane="best" from="15120004#0" to="-15110151#5"/>
    <trip id="motorcycle125" type="motorcycle_motorcycle" depart="222.68" departLane="best" from="-15116024#2" to="547804729"/>
    <trip id="motorcycle126" type="motorcycle_motorcycle" depart="224.47" departLane="best" from="-15119628#5" to="425114563#0"/>
    <trip id="motorcycle127" type="motorcycle_motorcycle" depart="226.25" departLane="best" from="1079341892#3" to="-15110664#0"/>
    <trip id="motorcycle128" type="motorcycle_motorcycle" depart="228.03" departLane="best" from="15117576#0" to="-596216236#9"/>
    <trip id="motorcycle129" type="motorcycle_motorcycle" depart="229.81" departLane="best" from="-724754681#11" to="15113582#0"/>
    <trip id="motorcycle130" type="motorcycle_motorcycle" depart="231.59" departLane="best" from="-15110470#5" to="15107230#0"/>
    <trip id="motorcycle131" type="motorcycle_motorcycle" depart="233.37" departLane="best" from="15113586#6" to="15120364#1"/>
    <trip id="motorcycle132" type="motorcycle_motorcycle" depart="235.15" departLane="best" from="1428508043#8" to="-15122542#0"/>
    <trip id="motorcycle133" type="motorcycle_motorcycle" depart="236.94" departLane="best" from="716657427#0" to="15112706#4"/>
    <trip id="motorcycle134" type="motorcycle_motorcycle" depart="238.72" departLane="best" from="15107349#2" to="-359590086#0"/>
    <trip id="motorcycle135" type="motorcycle_motorcycle" depart="240.50" departLane="best" from="-15124303#1" to="-15124642#7"/>
    <trip id="motorcycle136" type="motorcycle_motorcycle" depart="242.28" departLane="best" from="-62380383#3" to="15113309"/>
    <trip id="motorcycle137" type="motorcycle_motorcycle" depart="244.06" departLane="best" from="-15104358#0" to="15116029#0"/>
    <trip id="motorcycle138" type="motorcycle_motorcycle" depart="245.84" departLane="best" from="-15114305#1" to="-15113111#6"/>
    <trip id="motorcycle139" type="motorcycle_motorcycle" depart="247.62" departLane="best" from="15110470#0" to="15124079#1"/>
    <trip id="motorcycle140" type="motorcycle_motorcycle" depart="249.41" departLane="best" from="62380334#3" to="-561138825#2"/>
    <trip id="motorcycle141" type="motorcycle_motorcycle" depart="251.19" departLane="best" from="888173930#0" to="15103050#2"/>
    <trip id="motorcycle142" type="motorcycle_motorcycle" depart="252.97" departLane="best" from="1196194150#7" to="15115837#0"/>
    <trip id="motorcycle143" type="motorcycle_motorcycle" depart="254.75" departLane="best" from="-15113582#2" to="-15120724"/>
    <trip id="motorcycle144" type="motorcycle_motorcycle" depart="256.53" departLane="best" from="15106880#1" to="15114163#1"/>
    <trip id="motorcycle145" type="motorcycle_motorcycle" depart="258.31" departLane="best" from="-15104352#1" to="15106028"/>
    <trip id="motorcycle146" type="motorcycle_motorcycle" depart="260.10" departLane="best" from="-15115740#2" to="-596216236#16"/>
    <trip id="motorcycle147" type="motorcycle_motorcycle" depart="261.88" departLane="best" from="15124567#9" to="888173940#3"/>
    <trip id="motorcycle148" type="motorcycle_motorcycle" depart="263.66" departLane="best" from="-478967611#5" to="-62184393"/>
    <trip id="motorcycle149" type="motorcycle_motorcycle" depart="265.44" departLane="best" from="-724754681#9" to="865636081#2"/>
    <trip id="motorcycle150" type="motorcycle_motorcycle" depart="267.22" departLane="best" from="-425103286#6" to="-822656749#2"/>
    <trip id="motorcycle151" type="motorcycle_motorcycle" depart="269.00" departLane="best" from="-15103050#2" to="15123783#3"/>
    <trip id="motorcycle152" type="motorcycle_motorcycle" depart="270.78" departLane="best" from="15105159#1" to="-888173948#1"/>
    <trip id="motorcycle153" type="motorcycle_motorcycle" depart="272.57" departLane="best" departSpeed="max" from="-820848991" to="707308442"/>
    <trip id="motorcycle154" type="motorcycle_motorcycle" depart="274.35" departLane="best" from="-596216236#12" to="288913687"/>
    <trip id="motorcycle155" type="motorcycle_motorcycle" depart="276.13" departLane="best" from="951341916#0" to="-425105845#3"/>
    <trip id="motorcycle156" type="motorcycle_motorcycle" depart="277.91" departLane="best" from="-15122188#0" to="-15118035#2"/>
    <trip id="motorcycle157" type="motorcycle_motorcycle" depart="279.69" departLane="best" from="15121709#4" to="15111006#1"/>
    <trip id="motorcycle158" type="motorcycle_motorcycle" depart="281.47" departLane="best" from="15109157#2" to="15112500#1"/>
    <trip id="motorcycle159" type="motorcycle_motorcycle" depart="283.25" departLane="best" from="-596216234#0" to="-15118078#3"/>
    <trip id="motorcycle160" type="motorcycle_motorcycle" depart="285.04" departLane="best" from="15114128#1" to="724657100#6"/>
    <trip id="motorcycle161" type="motorcycle_motorcycle" depart="286.82" departLane="best" from="888173930#8" to="596216236#12"/>
    <trip id="motorcycle162" type="motorcycle_motorcycle" depart="288.60" departLane="best" from="15114410" to="-15113808#1"/>
    <trip id="motorcycle163" type="motorcycle_motorcycle" depart="290.38" departLane="best" from="724754682#6" to="-15103636#0"/>
    <trip id="motorcycle164" type="motorcycle_motorcycle" depart="292.16" departLane="best" from="15103522#11" to="-15121200#2"/>
    <trip id="motorcycle165" type="motorcycle_motorcycle" depart="293.94" departLane="best" from="-15106460#2" to="-15114881#5"/>
    <trip id="motorcycle166" type="motorcycle_motorcycle" depart="295.72" departLane="best" from="-596216236#11" to="-596216236#2"/>
    <trip id="motorcycle167" type="motorcycle_motorcycle" depart="297.51" departLane="best" from="15113111#0" to="15124380"/>
    <trip id="motorcycle168" type="motorcycle_motorcycle" depart="299.29" departLane="best" from="15116257" to="357230038#2"/>
    <trip id="motorcycle169" type="motorcycle_motorcycle" depart="301.07" departLane="best" from="-15119338#2" to="-293713566#4"/>
    <trip id="motorcycle170" type="motorcycle_motorcycle" depart="302.85" departLane="best" from="15115236#0" to="-15114881#0"/>
    <trip id="motorcycle171" type="motorcycle_motorcycle" depart="304.63" departLane="best" from="15109157#9-AddedOffRampEdge" to="15123913#2"/>
    <trip id="motorcycle172" type="motorcycle_motorcycle" depart="306.41" departLane="best" from="15124304#10" to="15114881#6"/>
    <trip id="motorcycle173" type="motorcycle_motorcycle" depart="308.19" departLane="best" from="-15124567#1" to="15108903#0"/>
    <trip id="motorcycle174" type="motorcycle_motorcycle" depart="309.98" departLane="best" from="356236380#1" to="1158488310#3"/>
    <trip id="motorcycle175" type="motorcycle_motorcycle" depart="311.76" departLane="best" from="-15121817#0" to="488991283#5"/>
    <trip id="motorcycle176" type="motorcycle_motorcycle" depart="313.54" departLane="best" from="-15105157#0" to="-15115584#3"/>
    <trip id="motorcycle177" type="motorcycle_motorcycle" depart="315.32" departLane="best" from="-15106639#1" to="-15115236#0"/>
    <trip id="motorcycle178" type="motorcycle_motorcycle" depart="317.10" departLane="best" from="15113026#20" to="-15116019#1"/>
    <trip id="motorcycle179" type="motorcycle_motorcycle" depart="318.88" departLane="best" from="-15123749#5" to="15110765"/>
    <trip id="motorcycle180" type="motorcycle_motorcycle" depart="320.67" departLane="best" from="-425105845#2" to="15112833#5"/>
    <trip id="motorcycle181" type="motorcycle_motorcycle" depart="322.45" departLane="best" from="-15113302#0" to="15103522#17"/>
    <trip id="motorcycle182" type="motorcycle_motorcycle" depart="324.23" departLane="best" from="15109157#10" to="-15121809#0"/>
    <trip id="motorcycle183" type="motorcycle_motorcycle" depart="326.01" departLane="best" from="-15122048#6" to="-15110470#5"/>
    <trip id="motorcycle184" type="motorcycle_motorcycle" depart="327.79" departLane="best" from="15115236#3" to="-15103522#21"/>
    <trip id="motorcycle185" type="motorcycle_motorcycle" depart="329.57" departLane="best" from="15124547" to="145186681#6"/>
    <trip id="motorcycle186" type="motorcycle_motorcycle" depart="331.35" departLane="best" from="15107357#2" to="-15108860#0"/>
    <trip id="motorcycle187" type="motorcycle_motorcycle" depart="333.14" departLane="best" from="888173940#4" to="-15117669#0"/>
    <trip id="motorcycle188" type="motorcycle_motorcycle" depart="334.92" departLane="best" from="-15123281#2" to="-15123736#14"/>
    <trip id="motorcycle189" type="motorcycle_motorcycle" depart="336.70" departLane="best" from="15108077#3" to="15122048#4"/>
    <trip id="motorcycle190" type="motorcycle_motorcycle" depart="338.48" departLane="best" from="15104872#1" to="596216236#7"/>
    <trip id="motorcycle191" type="motorcycle_motorcycle" depart="340.26" departLane="best" departSpeed="max" from="15118209" to="-1124322227#1"/>
    <trip id="motorcycle192" type="motorcycle_motorcycle" depart="342.04" departLane="best" from="-15111998#2" to="-15107351"/>
    <trip id="motorcycle193" type="motorcycle_motorcycle" depart="343.82" departLane="best" departSpeed="max" from="15110020" to="15114882#2"/>
    <trip id="motorcycle194" type="motorcycle_motorcycle" depart="345.61" departLane="best" from="-15113026#7" to="724754681#7"/>
    <trip id="motorcycle195" type="motorcycle_motorcycle" depart="347.39" departLane="best" from="-888173952#1" to="425105845#0"/>
    <trip id="motorcycle196" type="motorcycle_motorcycle" depart="349.17" departLane="best" from="15115236#10" to="-62042636"/>
    <trip id="motorcycle197" type="motorcycle_motorcycle" depart="350.95" departLane="best" from="-15107514#3" to="15112706#7"/>
    <trip id="motorcycle198" type="motorcycle_motorcycle" depart="352.73" departLane="best" from="365986968#6" to="15112444#1"/>
    <trip id="motorcycle199" type="motorcycle_motorcycle" depart="354.51" departLane="best" from="15114882#1" to="-888173932#2"/>
    <trip id="motorcycle200" type="motorcycle_motorcycle" depart="356.29" departLane="best" from="15109286#0" to="15124304#3"/>
    <trip id="motorcycle201" type="motorcycle_motorcycle" depart="358.08" departLane="best" from="-15120263#1" to="15105937#1"/>
    <trip id="motorcycle202" type="motorcycle_motorcycle" depart="359.86" departLane="best" from="15116107#2" to="631056506#3"/>
    <trip id="motorcycle203" type="motorcycle_motorcycle" depart="361.64" departLane="best" from="-262625963" to="-15122478#0"/>
    <trip id="motorcycle204" type="motorcycle_motorcycle" depart="363.42" departLane="best" from="761098575#2" to="-1079341892#0"/>
    <trip id="motorcycle205" type="motorcycle_motorcycle" depart="365.20" departLane="best" from="15117669#3" to="-888173940#2"/>
    <trip id="motorcycle206" type="motorcycle_motorcycle" depart="366.98" departLane="best" from="642998074#2" to="15122048#3"/>
    <trip id="motorcycle207" type="motorcycle_motorcycle" depart="368.76" departLane="best" from="-1158488310#4" to="-15119125#0"/>
    <trip id="motorcycle208" type="motorcycle_motorcycle" depart="370.55" departLane="best" from="-724754679#0" to="15105395#3"/>
    <trip id="motorcycle209" type="motorcycle_motorcycle" depart="372.33" departLane="best" from="761110430#4" to="15113586#1"/>
    <trip id="motorcycle210" type="motorcycle_motorcycle" depart="374.11" departLane="best" from="-15124567#1" to="724754683"/>
    <trip id="motorcycle211" type="motorcycle_motorcycle" depart="375.89" departLane="best" from="-888173930#1" to="-15123371"/>
    <trip id="motorcycle212" type="motorcycle_motorcycle" depart="377.67" departLane="best" from="220045152#3" to="15122981#0"/>
    <trip id="motorcycle213" type="motorcycle_motorcycle" depart="379.45" departLane="best" from="-15114881#2" to="15113026#0"/>
    <trip id="motorcycle214" type="motorcycle_motorcycle" depart="381.24" departLane="best" from="-15115978#0" to="-1343921271#0"/>
    <trip id="motorcycle215" type="motorcycle_motorcycle" depart="383.02" departLane="best" departSpeed="max" from="15118270#0" to="-15124567#3"/>
    <trip id="motorcycle216" type="motorcycle_motorcycle" depart="384.80" departLane="best" from="-888173938#0" to="-15103254"/>
    <trip id="motorcycle217" type="motorcycle_motorcycle" depart="386.58" departLane="best" from="-288917411#1" to="-15123910#1"/>
    <trip id="motorcycle218" type="motorcycle_motorcycle" depart="388.36" departLane="best" from="-15105832#1" to="-15105832#0"/>
    <trip id="motorcycle219" type="motorcycle_motorcycle" depart="390.14" departLane="best" from="840825305#1" to="-15121809#5"/>
    <trip id="motorcycle220" type="motorcycle_motorcycle" depart="391.92" departLane="best" from="-596216236#4" to="596216236#19"/>
    <trip id="motorcycle221" type="motorcycle_motorcycle" depart="393.71" departLane="best" from="-596216236#16" to="596216236#15"/>
    <trip id="motorcycle222" type="motorcycle_motorcycle" depart="395.49" departLane="best" from="-15118637#2" to="-724657099#2"/>
    <trip id="motorcycle223" type="motorcycle_motorcycle" depart="397.27" departLane="best" from="-15103276#0" to="-15114247#2"/>
    <trip id="motorcycle224" type="motorcycle_motorcycle" depart="399.05" departLane="best" from="15104872#0" to="596216235"/>
    <trip id="motorcycle225" type="motorcycle_motorcycle" depart="400.83" departLane="best" from="-288917409#2" to="15111008#1"/>
    <trip id="motorcycle226" type="motorcycle_motorcycle" depart="402.61" departLane="best" from="15110151#2" to="781993328#1"/>
    <trip id="motorcycle227" type="motorcycle_motorcycle" depart="404.39" departLane="best" departSpeed="max" from="63036189" to="15122469#1"/>