<?xml version="1.0" encoding="UTF-8"?>

<!-- generated on 2025-10-13 16:08:04 by Eclipse SUMO netedit Version 1.24.0
-->

<routes xmlns:xsi="http://www.w3.org/2001/XMLSchema-instance" xsi:noNamespaceSchemaLocation="http://sumo.dlr.de/xsd/routes_file.xsd">
    <!-- VTypes -->
    <vType id="truck_truck" vClass="truck"/>
    <!-- Vehicles, persons and containers (sorted by depart) -->
    <trip id="truck0" type="truck_truck" depart="0.00" departLane="best" departSpeed="max" from="-15123489" to="1315771807#1"/>
    <trip id="truck1" type="truck_truck" depart="0.89" departLane="best" departSpeed="max" from="-15105848#2" to="-478967612"/>
    <trip id="truck2" type="truck_truck" depart="1.79" departLane="best" departSpeed="max" from="-15105058#4" to="-1158488310#17"/>
    <trip id="truck3" type="truck_truck" depart="2.68" departLane="best" from="-15123910#2" to="-15112555#1"/>
    <trip id="truck4" type="truck_truck" depart="3.57" departLane="best" from="-273083799#0" to="15122478#1"/>
    <trip id="truck5" type="truck_truck" depart="4.47" departLane="best" departSpeed="max" from="-1430540285" to="15113339#1"/>
    <trip id="truck6" type="truck_truck" depart="5.36" departLane="best" from="-15112810#2" to="173877362#3"/>
    <trip id="truck7" type="truck_truck" depart="6.25" departLane="best" from="15121817#1" to="-15120141#0"/>
    <trip id="truck8" type="truck_truck" depart="7.15" departLane="best" from="425114567#15" to="15120521#2"/>
    <trip id="truck9" type="truck_truck" depart="8.04" departLane="best" departSpeed="max" from="-15105126#2" to="-737747964#3"/>
    <trip id="truck10" type="truck_truck" depart="8.93" departLane="best" departSpeed="max" from="15118270#0" to="724657000#0"/>
    <trip id="truck11" type="truck_truck" depart="9.82" departLane="best" from="-15115236#10" to="-15123736#0"/>
    <trip id="truck12" type="truck_truck" depart="10.72" departLane="best" departSpeed="max" from="-15107230#6" to="-15108860#3"/>
    <trip id="truck13" type="truck_truck" depart="11.61" departLane="best" from="15123133#2" to="-425103285#1"/>
    <trip id="truck14" type="truck_truck" depart="12.50" departLane="best" from="-631056506#0" to="488991297#1"/>
    <trip id="truck15" type="truck_truck" depart="13.40" departLane="best" from="15122469#1" to="15115413"/>
    <trip id="truck16" type="truck_truck" depart="14.29" departLane="best" from="488952830#5" to="15121817#1"/>
    <trip id="truck17" type="truck_truck" depart="15.18" departLane="best" from="335792152#4" to="15114881#2"/>
    <trip id="truck18" type="truck_truck" depart="16.08" departLane="best" from="15109157#8" to="-15104913#10"/>
    <trip id="truck19" type="truck_truck" depart="16.97" departLane="best" departSpeed="max" from="62382443" to="707308442"/>
    <trip id="truck20" type="truck_truck" depart="17.86" departLane="best" from="-425105845#12" to="15113582#0"/>
    <trip id="truck21" type="truck_truck" depart="18.76" departLane="best" from="-1196194150#13" to="144424806#1"/>
    <trip id="truck22" type="truck_truck" depart="19.65" departLane="best" from="15112555#8" to="-335792152#15"/>
    <trip id="truck23" type="truck_truck" depart="20.54" departLane="best" from="-724754682#0" to="361653562"/>
    <trip id="truck24" type="truck_truck" depart="21.44" departLane="best" from="-15113302#0" to="1079341892#4"/>
    <trip id="truck25" type="truck_truck" depart="22.33" departLane="best" from="-15106131#2" to="-707308440#0"/>
    <trip id="truck26" type="truck_truck" depart="23.22" departLane="best" from="540292670" to="15112706#7"/>
    <trip id="truck27" type="truck_truck" depart="24.11" departLane="best" departSpeed="max" from="-1315773879" to="443048895#0"/>
    <trip id="truck28" type="truck_truck" depart="25.01" departLane="best" from="15114957" to="15103522#21"/>
    <trip id="truck29" type="truck_truck" depart="25.90" departLane="best" from="-15115584#3" to="15113111#5"/>
    <trip id="truck30" type="truck_truck" depart="26.79" departLane="best" from="-15108860#3" to="15113309"/>
    <trip id="truck31" type="truck_truck" depart="27.69" departLane="best" from="15107293#1" to="-62184401"/>
    <trip id="truck32" type="truck_truck" depart="28.58" departLane="best" from="-15123736#7" to="-888173939#1"/>
    <trip id="truck33" type="truck_truck" depart="29.47" departLane="best" from="15114109#4" to="15103522#1"/>
    <trip id="truck34" type="truck_truck" depart="30.37" departLane="best" departSpeed="max" from="15115167" to="1428235008#2"/>
    <trip id="truck35" type="truck_truck" depart="31.26" departLane="best" departSpeed="max" from="-15113583#1" to="-1307690293#0"/>
    <trip id="truck36" type="truck_truck" depart="32.15" departLane="best" from="823248759#1" to="425103673#0"/>
    <trip id="truck37" type="truck_truck" depart="33.05" departLane="best" from="-15107293#2" to="15112706#1"/>
    <trip id="truck38" type="truck_truck" depart="33.94" departLane="best" from="15124870#1" to="608506493#1"/>
    <trip id="truck39" type="truck_truck" depart="34.83" departLane="best" departSpeed="max" from="-15104766" to="-15113302#3"/>
    <trip id="truck40" type="truck_truck" depart="35.73" departLane="best" departSpeed="max" from="-707296940" to="15111811#2"/>
    <trip id="truck41" type="truck_truck" depart="36.62" departLane="best" from="-15105867#3" to="15118644"/>
    <trip id="truck42" type="truck_truck" depart="37.51" departLane="best" departSpeed="max" from="15123320#0" to="-888173952#4"/>
    <trip id="truck43" type="truck_truck" depart="38.40" departLane="best" from="425114567#6" to="-723289936#1"/>
    <trip id="truck44" type="truck_truck" depart="39.30" departLane="best" departSpeed="max" from="425103132#0" to="-700469606"/>
    <trip id="truck45" type="truck_truck" depart="40.19" departLane="best" from="-716657429#2" to="-63036189"/>
    <trip id="truck46" type="truck_truck" depart="41.08" departLane="best" from="15119624#1" to="561138825#3"/>
    <trip id="truck47" type="truck_truck" depart="41.98" departLane="best" from="-15105058#3" to="15110664#2"/>
    <trip id="truck48" type="truck_truck" depart="42.87" departLane="best" from="425103286#1" to="15118230#6"/>
    <trip id="truck49" type="truck_truck" depart="43.76" departLane="best" from="-15120325#1" to="-62380334#9"/>
    <trip id="truck50" type="truck_truck" depart="44.66" departLane="best" from="567933289#3" to="-15120578#0"/>
    <trip id="truck51" type="truck_truck" depart="45.55" departLane="best" from="761098574#3" to="-724657099#0"/>
    <trip id="truck52" type="truck_truck" depart="46.44" departLane="best" from="143817925#2" to="15120076#5"/>
    <trip id="truck53" type="truck_truck" depart="47.34" departLane="best" from="15115978#1" to="15110666#0"/>
    <trip id="truck54" type="truck_truck" depart="48.23" departLane="best" from="488952830#4" to="15114453#3"/>
    <trip id="truck55" type="truck_truck" depart="49.12" departLane="best" departSpeed="max" from="63036189" to="15115236#11"/>
    <trip id="truck56" type="truck_truck" depart="50.02" departLane="best" from="15108903#0" to="-15104596#2"/>
    <trip id="truck57" type="truck_truck" depart="50.91" departLane="best" departSpeed="max" from="62382374" to="-15121809#2"/>
    <trip id="truck58" type="truck_truck" depart="51.80" departLane="best" from="-15119861#4" to="-15103522#19"/>
    <trip id="truck59" type="truck_truck" depart="52.69" departLane="best" from="15112500#0" to="-62382443"/>
    <trip id="truck60" type="truck_truck" depart="53.59" departLane="best" from="15114530" to="335792152#1"/>
    <trip id="truck61" type="truck_truck" depart="54.48" departLane="best" from="724754682#13" to="273083596#1"/>
    <trip id="truck62" type="truck_truck" depart="55.37" departLane="best" from="425103673#3" to="-63514839"/>
    <trip id="truck63" type="truck_truck" depart="56.27" departLane="best" from="-15103522#19" to="15124303#4"/>
    <trip id="truck64" type="truck_truck" depart="57.16" departLane="best" departSpeed="max" from="888173955" to="1113556860#0"/>
    <trip id="truck65" type="truck_truck" depart="58.05" departLane="best" departSpeed="max" from="62184394" to="15107357#3"/>
    <trip id="truck66" type="truck_truck" depart="58.95" departLane="best" from="-62874870#6" to="359639244#1"/>
    <trip id="truck67" type="truck_truck" depart="59.84" departLane="best" from="-15104596#0" to="-62380334#1"/>
    <trip id="truck68" type="truck_truck" depart="60.73" departLane="best" from="15118078#2" to="-15107230#5"/>
    <trip id="truck69" type="truck_truck" depart="61.63" departLane="best" from="15104913#23" to="-723289936#0"/>
    <trip id="truck70" type="truck_truck" depart="62.52" departLane="best" from="-15119338#3" to="-737405621#7"/>
    <trip id="truck71" type="truck_truck" depart="63.41" departLane="best" from="15122283" to="15115888#1"/>
    <trip id="truck72" type="truck_truck" depart="64.31" departLane="best" from="15109157#11-AddedOnRampEdge" to="15124380"/>
    <trip id="truck73" type="truck_truck" depart="65.20" departLane="best" from="-724657100#6" to="15109157#6"/>
    <trip id="truck74" type="truck_truck" depart="66.09" departLane="best" from="-15108077#2" to="15115348#1"/>
    <trip id="truck75" type="truck_truck" depart="66.98" departLane="best" from="15115236#24" to="15113582#0"/>
    <trip id="truck76" type="truck_truck" depart="67.88" departLane="best" from="273083799#1" to="888173934#2"/>
    <trip id="truck77" type="truck_truck" depart="68.77" departLane="best" from="15114827#2" to="-164254382#1"/>
    <trip id="truck78" type="truck_truck" depart="69.66" departLane="best" from="488952826#8" to="15115888#0"/>
    <trip id="truck79" type="truck_truck" depart="70.56" departLane="best" from="15112810#1" to="-15114409#1"/>
    <trip id="truck80" type="truck_truck" depart="71.45" departLane="best" from="15105832#0" to="-478967613"/>
    <trip id="truck81" type="truck_truck" depart="72.34" departLane="best" from="15107293#3" to="724657000#3"/>
    <trip id="truck82" type="truck_truck" depart="73.24" departLane="best" from="-62380383#0" to="-122998840"/>
    <trip id="truck83" type="truck_truck" depart="74.13" departLane="best" from="-15111806#3" to="15105056#3"/>
    <trip id="truck84" type="truck_truck" depart="75.02" departLane="best" from="425105845#4" to="-15103522#16"/>
    <trip id="truck85" type="truck_truck" depart="75.92" departLane="best" departSpeed="max" from="-724754679#1" to="-478967612"/>
    <trip id="truck86" type="truck_truck" depart="76.81" departLane="best" from="-802372534#6" to="15113583#1"/>
    <trip id="truck87" type="truck_truck" depart="77.70" departLane="best" from="123011260#3" to="-15124567#4"/>
    <trip id="truck88" type="truck_truck" depart="78.60" departLane="best" departSpeed="max" from="488958073" to="288917409#7"/>
    <trip id="truck89" type="truck_truck" depart="79.49" departLane="best" departSpeed="max" from="62042637" to="-15113026#1"/>
    <trip id="truck90" type="truck_truck" depart="80.38" departLane="best" departSpeed="max" from="15103053" to="-15122219#2"/>
    <trip id="truck91" type="truck_truck" depart="81.27" departLane="best" from="-15107357#0" to="724657100#5"/>
    <trip id="truck92" type="truck_truck" depart="82.17" departLane="best" from="15115011#2" to="1079341893#3"/>
    <trip id="truck93" type="truck_truck" depart="83.06" departLane="best" from="15123797#0" to="425105845#10"/>
    <trip id="truck94" type="truck_truck" depart="83.95" departLane="best" departSpeed="max" from="62184401" to="145186309"/>
    <trip id="truck95" type="truck_truck" depart="84.85" departLane="best" departSpeed="max" from="-732856288" to="-15118230#3"/>
    <trip id="truck96" type="truck_truck" depart="85.74" departLane="best" from="143817925#1" to="488952831#1"/>
    <trip id="truck97" type="truck_truck" depart="86.63" departLane="best" from="724656998" to="-15114109#4"/>
    <trip id="truck98" type="truck_truck" depart="87.53" departLane="best" from="-15111647#2" to="888173951#2"/>
    <trip id="truck99" type="truck_truck" depart="88.42" departLane="best" from="144424863#1" to="15114109#5"/>
    <trip id="truck100" type="truck_truck" depart="89.31" departLane="best" from="15118037#1" to="-761098574#6"/>
    <trip id="truck101" type="truck_truck" depart="90.21" departLane="best" departSpeed="max" from="-707308440#1" to="488963683"/>
    <trip id="truck102" type="truck_truck" depart="91.10" departLane="best" from="15112555#9" to="-1307690293#1"/>
    <trip id="truck103" type="truck_truck" depart="91.99" departLane="best" from="-145135690#0" to="365986968#12"/>
    <trip id="truck104" type="truck_truck" depart="92.89" departLane="best" from="15109157#9-AddedOffRampEdge" to="15122561#1"/>
    <trip id="truck105" type="truck_truck" depart="93.78" departLane="best" departSpeed="max" from="1212388185" to="15120154#1"/>
    <trip id="truck106" type="truck_truck" depart="94.67" departLane="best" from="-425103286#4" to="-62381707#0"/>
    <trip id="truck107" type="truck_truck" depart="95.56" departLane="best" from="-364597670" to="-335792152#14"/>
    <trip id="truck108" type="truck_truck" depart="96.46" departLane="best" from="737405621#9" to="488991297#0"/>
    <trip id="truck109" type="truck_truck" depart="97.35" departLane="best" from="15103698" to="-15103050#3"/>
    <trip id="truck110" type="truck_truck" depart="98.24" departLane="best" from="716657423#7" to="288917409#4"/>
    <trip id="truck111" type="truck_truck" depart="99.14" departLane="best" from="15113583#0" to="820848992"/>
    <trip id="truck112" type="truck_truck" depart="100.03" departLane="best" departSpeed="max" from="15123320#0" to="15112500#1"/>
    <trip id="truck113" type="truck_truck" depart="100.92" departLane="best" from="-359590086#0" to="15113302#2"/>
    <trip id="truck114" type="truck_truck" depart="101.82" departLane="best" from="-737405621#16" to="-15115837#2"/>
    <trip id="truck115" type="truck_truck" depart="102.71" departLane="best" from="-15114493#2" to="-15111613"/>
    <trip id="truck116" type="truck_truck" depart="103.60" departLane="best" from="15116029#1" to="-62874870#0"/>
    <trip id="truck117" type="truck_truck" depart="104.50" departLane="best" from="888173944" to="716657426"/>
    <trip id="truck118" type="truck_truck" depart="105.39" departLane="best" from="-15123912#1" to="-15110767#0"/>
    <trip id="truck119" type="truck_truck" depart="106.28" departLane="best" from="365986968#8" to="425105845#2"/>
    <trip id="truck120" type="truck_truck" depart="107.18" departLane="best" from="-547804729" to="15123749#9"/>
    <trip id="truck121" type="truck_truck" depart="108.07" departLane="best" from="724754679#0" to="-888173952#2"/>
    <trip id="truck122" type="truck_truck" depart="108.96" departLane="best" departSpeed="max" from="-820848991" to="15113026#13"/>
    <trip id="truck123" type="truck_truck" depart="109.85" departLane="best" from="888173943" to="-15114247#1"/>
    <trip id="truck124" type="truck_truck" depart="110.75" departLane="best" from="-15107293#0" to="-15112706#11"/>
    <trip id="truck125" type="truck_truck" depart="111.64" departLane="best" from="724754681#7" to="-352308244#5"/>
    <trip id="truck126" type="truck_truck" depart="112.53" departLane="best" from="-15105067" to="-15114878#0"/>
    <trip id="truck127" type="truck_truck" depart="113.43" departLane="best" from="-123011256#0" to="15104766"/>
    <trip id="truck128" type="truck_truck" depart="114.32" departLane="best" from="15113111#5" to="-288913687"/>
    <trip id="truck129" type="truck_truck" depart="115.21" departLane="best" from="-1209243783#3" to="-145186677#5"/>
    <trip id="truck130" type="truck_truck" depart="116.11" departLane="best" from="-15120724" to="-888173955"/>
    <trip id="truck131" type="truck_truck" depart="117.00" departLane="best" from="-724754679#0" to="724754681#5"/>
    <trip id="truck132" type="truck_truck" depart="117.89" departLane="best" from="724657000#1" to="144424817#4"/>
    <trip id="truck133" type="truck_truck" depart="118.79" departLane="best" from="15111806#2" to="-62042636"/>
    <trip id="truck134" type="truck_truck" depart="119.68" departLane="best" from="15114051#1" to="-15104596#1"/>
    <trip id="truck135" type="truck_truck" depart="120.57" departLane="best" departSpeed="max" from="-15115875#2" to="353288054"/>
    <trip id="truck136" type="truck_truck" depart="121.47" departLane="best" from="-888173930#0" to="1428235008#3"/>
    <trip id="truck137" type="truck_truck" depart="122.36" departLane="best" from="365986968#9" to="15115236#16"/>
    <trip id="truck138" type="truck_truck" depart="123.25" departLane="best" from="-15115014#5" to="1113556865#1"/>
    <trip id="truck139" type="truck_truck" depart="124.15" departLane="best" from="445115660" to="-595946121#0"/>
    <trip id="truck140" type="truck_truck" depart="125.04" departLane="best" from="761098573#2" to="-15118230#6"/>
    <trip id="truck141" type="truck_truck" depart="125.93" departLane="best" departSpeed="max" from="-707308441" to="-15118037#1"/>
    <trip id="truck142" type="truck_truck" depart="126.82" departLane="best" from="-15123797#1" to="-15120774#6"/>
    <trip id="truck143" type="truck_truck" depart="127.72" departLane="best" from="15114530" to="15123222#0"/>
    <trip id="truck144" type="truck_truck" depart="128.61" departLane="best" from="488991285" to="-15114054#0"/>
    <trip id="truck145" type="truck_truck" depart="129.50" departLane="best" from="888173956#2" to="15117722"/>
    <trip id="truck146" type="truck_truck" depart="130.40" departLane="best" departSpeed="max" from="-15123291#1" to="15116019#2"/>
    <trip id="truck147" type="truck_truck" depart="131.29" departLane="best" from="15111780" to="-596216236#17"/>
    <trip id="truck148" type="truck_truck" depart="132.18" departLane="best" departSpeed="max" from="-15123690#1" to="-15107514#0"/>
    <trip id="truck149" type="truck_truck" depart="133.08" departLane="best" from="-15118816" to="425117175#6"/>
    <trip id="truck150" type="truck_truck" depart="133.97" departLane="best" from="-596216234#0" to="15115236#18"/>
    <trip id="truck151" type="truck_truck" depart="134.86" departLane="best" departSpeed="max" from="-823248754#4" to="-15122188#1"/>
    <trip id="truck152" type="truck_truck" depart="135.76" departLane="best" from="-761098573#0" to="-15118209"/>
    <trip id="truck153" type="truck_truck" depart="136.65" departLane="best" from="-15112555#3" to="173877362#0"/>
    <trip id="truck154" type="truck_truck" depart="137.54" departLane="best" from="425103283" to="1430540285"/>
    <trip id="truck155" type="truck_truck" depart="138.44" departLane="best" from="1428235009#0" to="-1209243783#0"/>
    <trip id="truck156" type="truck_truck" depart="139.33" departLane="best" from="15115740#3" to="145135690#1"/>
    <trip id="truck157" type="truck_truck" depart="140.22" departLane="best" from="15123222#1" to="15124642#12"/>
    <trip id="truck158" type="truck_truck" depart="141.11" departLane="best" from="15124476#5" to="700469608"/>
    <trip id="truck159" type="truck_truck" depart="142.01" departLane="best" from="1113556860#1" to="15120521#2"/>
    <trip id="truck160" type="truck_truck" depart="142.90" departLane="best" from="15105605#1" to="-15121709#2"/>
    <trip id="truck161" type="truck_truck" depart="143.79" departLane="best" from="488963863#2" to="15105058#4"/>
    <trip id="truck162" type="truck_truck" depart="144.69" departLane="best" from="-15115236#17" to="15109157#7"/>
    <trip id="truck163" type="truck_truck" depart="145.58" departLane="best" from="478967611#7" to="-15115226#1"/>
    <trip id="truck164" type="truck_truck" depart="146.47" departLane="best" from="-15114882#0" to="15114163#1"/>
    <trip id="truck165" type="truck_truck" depart="147.37" departLane="best" from="-15113026#1" to="15123783#3"/>
    <trip id="truck166" type="truck_truck" depart="148.26" departLane="best" from="15111019#1" to="1209243783#3"/>
    <trip id="truck167" type="truck_truck" depart="149.15" departLane="best" from="-15124642#7" to="15107514#3"/>
    <trip id="truck168" type="truck_truck" depart="150.05" departLane="best" from="-761098574#8" to="781993327#1"/>
    <trip id="truck169" type="truck_truck" depart="150.94" departLane="best" from="-62380334#9" to="-1079341896#1"/>
    <trip id="truck170" type="truck_truck" depart="151.83" departLane="best" departSpeed="max" from="-822656748" to="15105158#0"/>
    <trip id="truck171" type="truck_truck" depart="152.73" departLane="best" from="15122542#5" to="15114247#0"/>
    <trip id="truck172" type="truck_truck" depart="153.62" departLane="best" from="567933289#8" to="-15122981#0"/>
    <trip id="truck173" type="truck_truck" depart="154.51" departLane="best" from="15113026#4" to="361653552#1"/>
    <trip id="truck174" type="truck_truck" depart="155.40" departLane="best" from="596216234#0" to="288913687"/>
    <trip id="truck175" type="truck_truck" depart="156.30" departLane="best" from="15115011#4" to="-802372534#11"/>
    <trip id="truck176" type="truck_truck" depart="157.19" departLane="best" from="707296938" to="15122477#1"/>
    <trip id="truck177" type="truck_truck" depart="158.08" departLane="best" from="-761098574#5" to="737405621#19"/>
    <trip id="truck178" type="truck_truck" depart="158.98" departLane="best" departSpeed="max" from="52496365#0" to="823248756#3"/>
    <trip id="truck179" type="truck_truck" depart="159.87" departLane="best" from="737747964#2" to="761098573#2"/>
    <trip id="truck180" type="truck_truck" depart="160.76" departLane="best" from="-724754682#4" to="-734755440"/>
    <trip id="truck181" type="truck_truck" depart="161.66" departLane="best" departSpeed="max" from="865636081#0" to="-1315773876#0"/>
    <trip id="truck182" type="truck_truck" depart="162.55" departLane="best" from="737405621#21" to="356236380#0"/>
    <trip id="truck183" type="truck_truck" depart="163.44" departLane="best" departSpeed="max" from="-15115888#1" to="15113586#4"/>
    <trip id="truck184" type="truck_truck" depart="164.34" departLane="best" from="-62380334#1" to="15122946#1"/>
    <trip id="truck185" type="truck_truck" depart="165.23" departLane="best" from="631056498" to="15123320#1"/>
    <trip id="truck186" type="truck_truck" depart="166.12" departLane="best" from="425105844#0" to="-288913683"/>
    <trip id="truck187" type="truck_truck" depart="167.02" departLane="best" departSpeed="max" from="1212388185" to="1158488310#24"/>
    <trip id="truck188" type="truck_truck" depart="167.91" departLane="best" from="724754681#0" to="-15120325#0"/>
    <trip id="truck189" type="truck_truck" depart="168.80" departLane="best" from="15120325#0" to="15117113"/>
    <trip id="truck190" type="truck_truck" depart="169.69" departLane="best" from="-425103673#7" to="724754682#8"/>
    <trip id="truck191" type="truck_truck" depart="170.59" departLane="best" departSpeed="max" from="62184397" to="-15123749#8"/>
    <trip id="truck192" type="truck_truck" depart="171.48" departLane="best" from="-335792152#9" to="15114453#1"/>
    <trip id="truck193" type="truck_truck" depart="172.37" departLane="best" from="-15112555#5" to="-288913692#2"/>
    <trip id="truck194" type="truck_truck" depart="173.27" departLane="best" departSpeed="max" from="-15111006#2" to="15120076#4"/>
    <trip id="truck195" type="truck_truck" depart="174.16" departLane="best" from="1158488310#0" to="-15110668#0"/>
    <trip id="truck196" type="truck_truck" depart="175.05" departLane="best" from="425103672#4" to="15105126#2"/>
    <trip id="truck197" type="truck_truck" depart="175.95" departLane="best" from="15114882#0" to="-15122542#6"/>
    <trip id="truck198" type="truck_truck" depart="176.84" departLane="best" from="15115978#0" to="-478967611#11"/>
    <trip id="truck199" type="truck_truck" depart="177.73" departLane="best" from="888173930#3" to="-15105126#0"/>
    <trip id="truck200" type="truck_truck" depart="178.63" departLane="best" departSpeed="max" from="-15103276#4" to="-723517746#0"/>
    <trip id="truck201" type="truck_truck" depart="179.52" departLane="best" from="-15112797#1" to="-15113586#9"/>
    <trip id="truck202" type="truck_truck" depart="180.41" departLane="best" from="15123616#4" to="15105841"/>
    <trip id="truck203" type="truck_truck" depart="181.31" departLane="best" from="15118037#3" to="-15115867#0"/>
    <trip id="truck204" type="truck_truck" depart="182.20" departLane="best" departSpeed="max" from="15114044#0" to="15124304#10"/>
    <trip id="truck205" type="truck_truck" depart="183.09" departLane="best" from="-15106127#3" to="-15115975#0"/>
    <trip id="truck206" type="truck_truck" depart="183.98" departLane="best" from="-888173930#1" to="-425114567#1"/>
    <trip id="truck207" type="truck_truck" depart="184.88" departLane="best" from="425114565#0" to="15106880#0"/>
    <trip id="truck208" type="truck_truck" depart="185.77" departLane="best" from="-888173951#0" to="-723517747"/>
    <trip id="truck209" type="truck_truck" depart="186.66" departLane="best" from="-15115011#0" to="-15117576#0"/>
    <trip id="truck210" type="truck_truck" depart="187.56" departLane="best" from="-15123616#3" to="-1158488310#24"/>
    <trip id="truck211" type="truck_truck" depart="188.45" departLane="best" from="-15114882#2" to="15110585#8"/>
    <trip id="truck212" type="truck_truck" depart="189.34" departLane="best" from="15103636#4" to="15108903#2"/>
    <trip id="truck213" type="truck_truck" depart="190.24" departLane="best" from="951341916#1" to="15103522#3"/>
    <trip id="truck214" type="truck_truck" depart="191.13" departLane="best" from="293713565" to="15104913#12"/>
    <trip id="truck215" type="truck_truck" depart="192.02" departLane="best" departSpeed="max" from="478967612" to="779837498"/>
    <trip id="truck216" type="truck_truck" depart="192.92" departLane="best" from="-15116107#3" to="596216237#0"/>
    <trip id="truck217" type="truck_truck" depart="193.81" departLane="best" from="15113026#9" to="608506493#1"/>
    <trip id="truck218" type="truck_truck" depart="194.70" departLane="best" departSpeed="max" from="-15103276#4" to="365986968#7"/>
    <trip id="truck219" type="truck_truck" depart="195.60" departLane="best" from="15122477#0" to="425114567#15"/>
    <trip id="truck220" type="truck_truck" depart="196.49" departLane="best" from="-15123910#0" to="-425105849"/>
    <trip id="truck221" type="truck_truck" depart="197.38" departLane="best" from="15114453#0" to="-596216236#19"/>
    <trip id="truck222" type="truck_truck" depart="198.27" departLane="best" from="-596216236#3" to="888173954"/>
    <trip id="truck223" type="truck_truck" depart="199.17" departLane="best" departSpeed="max" from="443049143" to="-1204954329"/>
    <trip id="truck224" type="truck_truck" depart="200.06" departLane="best" from="15112555#4" to="642998074#2"/>
    <trip id="truck225" type="truck_truck" depart="200.95" departLane="best" from="-361653552#2" to="15112003#0"/>
    <trip id="truck226" type="truck_truck" depart="201.85" departLane="best" from="-15107514#1" to="15123736#5"/>
    <trip id="truck227" type="truck_truck" depart="202.74" departLane="best" from="-15119484#0" to="888173930#3"/>
    <trip id="truck228" type="truck_truck" depart="203.63" departLane="best" from="15111224#0" to="-15103522#4"/>
    <trip id="truck229" type="truck_truck" depart="204.53" departLane="best" from="-352306706#0" to="15115875#2"/>
    <trip id="truck230" type="truck_truck" depart="205.42" departLane="best" departSpeed="max" from="-15105937#1" to="358443481#1"/>
    <trip id="truck231" type="truck_truck" depart="206.31" departLane="best" from="-335792152#2" to="-15111803#0"/>
    <trip id="truck232" type="truck_truck" depart="207.21" departLane="best" departSpeed="max" from="15101889" to="15115875#2"/>
    <trip id="truck233" type="truck_truck" depart="208.10" departLane="best" from="737405621#1" to="15115314#3"/>
    <trip id="truck234" type="truck_truck" depart="208.99" departLane="best" from="15122542#0" to="1113556860#0"/>
    <trip id="truck235" type="truck_truck" depart="209.89" departLane="best" from="724657000#3" to="15106024#1"/>
    <trip id="truck236" type="truck_truck" depart="210.78" departLane="best" from="-15103522#9" to="15114128#0"/>
    <trip id="truck237" type="truck_truck" depart="211.67" departLane="best" from="449387161" to="1307690293#3"/>
    <trip id="truck238" type="truck_truck" depart="212.56" departLane="best" from="15115584#3" to="15104913#23"/>
    <trip id="truck239" type="truck_truck" depart="213.46" departLane="best" from="273083596#1" to="1428508043#7"/>
    <trip id="truck240" type="truck_truck" depart="214.35" departLane="best" from="-822656749#2" to="-888173946#0"/>
    <trip id="truck241" type="truck_truck" depart="215.24" departLane="best" from="595946121#1" to="888173951#0"/>
    <trip id="truck242" type="truck_truck" depart="216.14" departLane="best" from="145135690#1" to="-15123133#2"/>
    <trip id="truck243" type="truck_truck" depart="217.03" departLane="best" departSpeed="max" from="15121809#0" to="-15123736#6"/>
    <trip id="truck244" type="truck_truck" depart="217.92" departLane="best" from="596216234#3" to="-15111006#0"/>
    <trip id="truck245" type="truck_truck" depart="218.82" departLane="best" from="-1428508043#8" to="359639244#1"/>
    <trip id="truck246" type="truck_truck" depart="219.71" departLane="best" from="15110664#2" to="15120141#3"/>
    <trip id="truck247" type="truck_truck" depart="220.60" departLane="best" from="-15104596#3" to="15122188#1"/>
    <trip id="truck248" type="truck_truck" depart="221.50" departLane="best" from="737405621#15" to="-122999052"/>
    <trip id="truck249" type="truck_truck" depart="222.39" departLane="best" from="-15120263#4" to="356237043#0"/>
    <trip id="truck250" type="truck_truck" depart="223.28" departLane="best" from="220045152#3" to="15110585#8"/>
    <trip id="truck251" type="truck_truck" depart="224.18" departLane="best" from="724754679#0" to="15108077#2"/>
    <trip id="truck252" type="truck_truck" depart="225.07" departLane="best" from="-15120076#4" to="176875288#10"/>